Using: /opt/synopsys-2017/app/hspice/M-2017.03-SP1-1/hspice/linux64/hspice  -i '/DCNFS/users/student/yli1/simulation/lab2/testbench_inverter/schematic/HSPICE/nominal/netlist/input.spi' -o hspice

>info:         ***** hspice job concluded
